ligands/lig.pdb


 30 33  0  0  0  0  0  0  0  0999 V2000
   -1.4289    3.5830   -8.6479 C   0  0  0  0  0  0  0  0  0  0  0  0
   -1.8481    2.3246   -8.8521 N   0  0  0  0  0  0  0  0  0  0  0  0
    0.1108    1.5302   -7.6826 C   0  0  0  0  0  0  0  0  0  0  0  0
   -1.0816    1.3264   -8.3686 C   0  0  0  0  0  0  0  0  0  0  0  0
   -0.3185    3.8608   -7.9372 N   0  0  0  0  0  0  0  0  0  0  0  0
    0.4312    2.8623   -7.4724 C   0  0  0  0  0  0  0  0  0  0  0  0
    0.9820    0.5227   -7.2155 C   0  0  0  0  0  0  0  0  0  0  0  0
    1.5931    3.1636   -6.7803 C   0  0  0  0  0  0  0  0  0  0  0  0
    2.1572    0.8406   -6.5212 C   0  0  0  0  0  0  0  0  0  0  0  0
    2.4787    2.1845   -6.3125 C   0  0  0  0  0  0  0  0  0  0  0  0
   -1.5352   -0.0039   -8.6224 N   0  0  0  0  0  0  0  0  0  0  0  0
   -2.3788   -0.1521   -9.1078 H   0  0  0  0  0  0  0  0  0  0  0  0
   -1.0042   -0.7726   -8.3121 H   0  0  0  0  0  0  0  0  0  0  0  0
   -4.2121    7.2478  -12.5490 C   0  0  0  0  0  0  0  0  0  0  0  0
   -2.0715    4.6490   -9.2898 N   0  0  0  0  0  0  0  0  0  0  0  0
   -3.4867    6.3934  -11.7047 N   0  0  0  0  0  0  0  0  0  0  0  0
   -3.4524    4.5354   -9.7868 C   0  0  0  0  0  0  0  0  0  0  0  0
   -1.4110    5.6040  -10.1938 C   0  0  0  0  0  0  0  0  0  0  0  0
   -4.0367    5.3972  -10.9301 C   0  0  0  0  0  0  0  0  0  0  0  0
   -2.1693    6.3985  -11.2987 C   0  0  0  0  0  0  0  0  0  0  0  0
   -5.4149    7.0745  -12.7338 O   0  0  0  0  0  0  0  0  0  0  0  0
   -3.5123    8.3520  -13.1812 C   0  0  0  0  0  0  0  0  0  0  0  0
   -3.3801    9.5683  -12.5680 O   0  0  0  0  0  0  0  0  0  0  0  0
   -2.9072    8.4036  -14.4226 C   0  0  0  0  0  0  0  0  0  0  0  0
   -2.6979   10.3845  -13.4180 C   0  0  0  0  0  0  0  0  0  0  0  0
   -2.3862    9.7083  -14.5749 C   0  0  0  0  0  0  0  0  0  0  0  0
    3.0152   -0.1495   -6.1132 O   0  0  0  0  0  0  0  0  0  0  0  0
    4.1066   -0.3063   -6.9819 C   0  0  0  0  0  0  0  0  0  0  0  0
    3.5338    2.6919   -5.5995 O   0  0  0  0  0  0  0  0  0  0  0  0
    3.3077    3.9082   -4.9478 C   0  0  0  0  0  0  0  0  0  0  0  0
  1  2  2  0
  1  5  1  0
  1 15  1  0
  2  4  1  0
  3  6  1  0
  3  4  2  0
  3  7  1  0
  4 11  1  0
  5  6  2  0
  6  8  1  0
 14 16  1  0
 14 22  1  0
 14 21  2  0
 15 17  1  0
 15 18  1  0
 16 20  1  0
 16 19  1  0
  7  9  2  0
 22 23  1  0
 22 24  2  0
  8 10  2  0
  9 10  1  0
  9 27  1  0
 10 29  1  0
 23 25  1  0
 17 19  2  0
 18 20  2  0
 24 26  1  0
 25 26  2  0
 27 28  1  0
 29 30  1  0
 11 12  1  0
 11 13  1  0
M  END
> <COMPND>
UNNAMED

> <AUTHOR>
GENERATED BY OPEN BABEL 3.1.0

> <MASTER>
0    0    0    0    0    0    0    0   28    0   28    0

> <minimizedAffinity>
-6.42108

> <CNNscore>
0.1568269581

> <CNNaffinity>
4.0571017265

> <CNN_VS>
0.6362628937

> <CNNaffinity_variance>
0.7147843838

$$$$
ligands/lig.pdb


 30 33  0  0  0  0  0  0  0  0999 V2000
    3.6136    6.5643   -8.8644 C   0  0  0  0  0  0  0  0  0  0  0  0
    3.4347    6.3919  -10.1832 N   0  0  0  0  0  0  0  0  0  0  0  0
    3.5595    4.0035   -9.8422 C   0  0  0  0  0  0  0  0  0  0  0  0
    3.4073    5.1267  -10.6480 C   0  0  0  0  0  0  0  0  0  0  0  0
    3.7041    5.5243   -8.0126 N   0  0  0  0  0  0  0  0  0  0  0  0
    3.6822    4.2804   -8.4896 C   0  0  0  0  0  0  0  0  0  0  0  0
    3.6054    2.6644  -10.2855 C   0  0  0  0  0  0  0  0  0  0  0  0
    3.8195    3.2222   -7.6059 C   0  0  0  0  0  0  0  0  0  0  0  0
    3.7501    1.6028   -9.3819 C   0  0  0  0  0  0  0  0  0  0  0  0
    3.8755    1.8850   -8.0190 C   0  0  0  0  0  0  0  0  0  0  0  0
    3.2429    4.9706  -12.0582 N   0  0  0  0  0  0  0  0  0  0  0  0
    3.1349    5.7633  -12.6319 H   0  0  0  0  0  0  0  0  0  0  0  0
    3.2377    4.0703  -12.4564 H   0  0  0  0  0  0  0  0  0  0  0  0
    3.4250   12.4216   -7.4318 C   0  0  0  0  0  0  0  0  0  0  0  0
    3.8468    7.8458   -8.3500 N   0  0  0  0  0  0  0  0  0  0  0  0
    3.4790   11.0867   -7.8610 N   0  0  0  0  0  0  0  0  0  0  0  0
    2.8771    8.5149   -7.4674 C   0  0  0  0  0  0  0  0  0  0  0  0
    4.5217    8.9316   -9.0788 C   0  0  0  0  0  0  0  0  0  0  0  0
    2.7723   10.0483   -7.2977 C   0  0  0  0  0  0  0  0  0  0  0  0
    4.2965   10.4406   -8.7635 C   0  0  0  0  0  0  0  0  0  0  0  0
    2.6274   12.7698   -6.5636 O   0  0  0  0  0  0  0  0  0  0  0  0
    4.3472   13.3752   -8.0224 C   0  0  0  0  0  0  0  0  0  0  0  0
    5.6419   13.4877   -7.5936 O   0  0  0  0  0  0  0  0  0  0  0  0
    4.1245   14.2917   -9.0325 C   0  0  0  0  0  0  0  0  0  0  0  0
    6.2331   14.4712   -8.3264 C   0  0  0  0  0  0  0  0  0  0  0  0
    5.3341   14.9959   -9.2262 C   0  0  0  0  0  0  0  0  0  0  0  0
    3.8376    0.3101   -9.8337 O   0  0  0  0  0  0  0  0  0  0  0  0
    2.6124   -0.3705   -9.7554 C   0  0  0  0  0  0  0  0  0  0  0  0
    3.9506    0.9912   -6.9824 O   0  0  0  0  0  0  0  0  0  0  0  0
    4.0442    1.5421   -5.7006 C   0  0  0  0  0  0  0  0  0  0  0  0
  1  2  2  0
  1  5  1  0
  1 15  1  0
  2  4  1  0
  3  6  1  0
  3  4  2  0
  3  7  1  0
  4 11  1  0
  5  6  2  0
  6  8  1  0
 14 16  1  0
 14 22  1  0
 14 21  2  0
 15 17  1  0
 15 18  1  0
 16 20  1  0
 16 19  1  0
  7  9  2  0
 22 23  1  0
 22 24  2  0
  8 10  2  0
  9 10  1  0
  9 27  1  0
 10 29  1  0
 23 25  1  0
 17 19  2  0
 18 20  2  0
 24 26  1  0
 25 26  2  0
 27 28  1  0
 29 30  1  0
 11 12  1  0
 11 13  1  0
M  END
> <COMPND>
UNNAMED

> <AUTHOR>
GENERATED BY OPEN BABEL 3.1.0

> <MASTER>
0    0    0    0    0    0    0    0   28    0   28    0

> <minimizedAffinity>
-7.75661

> <CNNscore>
0.1119339168

> <CNNaffinity>
4.6262879372

> <CNN_VS>
0.5178385377

> <CNNaffinity_variance>
0.4607986510

$$$$
ligands/lig.pdb


 30 33  0  0  0  0  0  0  0  0999 V2000
    0.0057    3.6848   -8.3419 C   0  0  0  0  0  0  0  0  0  0  0  0
    0.7026    4.0392   -7.2512 N   0  0  0  0  0  0  0  0  0  0  0  0
    1.6734    1.8274   -7.2080 C   0  0  0  0  0  0  0  0  0  0  0  0
    1.5206    3.1158   -6.7073 C   0  0  0  0  0  0  0  0  0  0  0  0
    0.1493    2.4771   -8.9216 N   0  0  0  0  0  0  0  0  0  0  0  0
    0.9567    1.5738   -8.3671 C   0  0  0  0  0  0  0  0  0  0  0  0
    2.4626    0.8045   -6.6399 C   0  0  0  0  0  0  0  0  0  0  0  0
    1.0611    0.3215   -8.9506 C   0  0  0  0  0  0  0  0  0  0  0  0
    2.5558   -0.4601   -7.2370 C   0  0  0  0  0  0  0  0  0  0  0  0
    1.8306   -0.7135   -8.4043 C   0  0  0  0  0  0  0  0  0  0  0  0
    2.2305    3.5084   -5.5318 N   0  0  0  0  0  0  0  0  0  0  0  0
    2.1250    4.4196   -5.1743 H   0  0  0  0  0  0  0  0  0  0  0  0
    2.8254    2.8678   -5.0790 H   0  0  0  0  0  0  0  0  0  0  0  0
   -4.4333    6.2734  -11.5026 C   0  0  0  0  0  0  0  0  0  0  0  0
   -1.0007    4.5248   -8.8346 N   0  0  0  0  0  0  0  0  0  0  0  0
   -3.3434    5.6780  -10.8495 N   0  0  0  0  0  0  0  0  0  0  0  0
   -2.4026    4.0851   -8.9236 C   0  0  0  0  0  0  0  0  0  0  0  0
   -0.8255    5.4876   -9.9337 C   0  0  0  0  0  0  0  0  0  0  0  0
   -3.4391    4.6830   -9.9030 C   0  0  0  0  0  0  0  0  0  0  0  0
   -2.0007    5.9896  -10.8247 C   0  0  0  0  0  0  0  0  0  0  0  0
   -5.5737    5.8450  -11.3382 O   0  0  0  0  0  0  0  0  0  0  0  0
   -4.1837    7.4190  -12.3594 C   0  0  0  0  0  0  0  0  0  0  0  0
   -3.7868    7.2739  -13.6610 O   0  0  0  0  0  0  0  0  0  0  0  0
   -4.2704    8.7656  -12.0608 C   0  0  0  0  0  0  0  0  0  0  0  0
   -3.6211    8.5213  -14.1811 C   0  0  0  0  0  0  0  0  0  0  0  0
   -3.9078    9.4725  -13.2293 C   0  0  0  0  0  0  0  0  0  0  0  0
    3.2920   -1.4567   -6.6474 O   0  0  0  0  0  0  0  0  0  0  0  0
    2.6183   -2.0584   -5.5729 C   0  0  0  0  0  0  0  0  0  0  0  0
    1.8478   -1.8501   -9.1704 O   0  0  0  0  0  0  0  0  0  0  0  0
    0.8217   -2.7693   -8.9305 C   0  0  0  0  0  0  0  0  0  0  0  0
  1  2  2  0
  1  5  1  0
  1 15  1  0
  2  4  1  0
  3  6  1  0
  3  4  2  0
  3  7  1  0
  4 11  1  0
  5  6  2  0
  6  8  1  0
 14 16  1  0
 14 22  1  0
 14 21  2  0
 15 17  1  0
 15 18  1  0
 16 20  1  0
 16 19  1  0
  7  9  2  0
 22 23  1  0
 22 24  2  0
  8 10  2  0
  9 10  1  0
  9 27  1  0
 10 29  1  0
 23 25  1  0
 17 19  2  0
 18 20  2  0
 24 26  1  0
 25 26  2  0
 27 28  1  0
 29 30  1  0
 11 12  1  0
 11 13  1  0
M  END
> <COMPND>
UNNAMED

> <AUTHOR>
GENERATED BY OPEN BABEL 3.1.0

> <MASTER>
0    0    0    0    0    0    0    0   28    0   28    0

> <minimizedAffinity>
-6.77420

> <CNNscore>
0.1027559265

> <CNNaffinity>
4.1183772087

> <CNN_VS>
0.4231876731

> <CNNaffinity_variance>
0.6893693805

$$$$
ligands/lig.pdb


 30 33  0  0  0  0  0  0  0  0999 V2000
    2.7942    5.4157   -7.7862 C   0  0  0  0  0  0  0  0  0  0  0  0
    2.5499    5.9709   -6.5891 N   0  0  0  0  0  0  0  0  0  0  0  0
    2.7768    8.1513   -7.6043 C   0  0  0  0  0  0  0  0  0  0  0  0
    2.5416    7.3171   -6.5167 C   0  0  0  0  0  0  0  0  0  0  0  0
    2.9675    6.1580   -8.8972 N   0  0  0  0  0  0  0  0  0  0  0  0
    2.9632    7.4873   -8.8067 C   0  0  0  0  0  0  0  0  0  0  0  0
    2.8453    9.5606   -7.5696 C   0  0  0  0  0  0  0  0  0  0  0  0
    3.1855    8.2369   -9.9506 C   0  0  0  0  0  0  0  0  0  0  0  0
    3.0762   10.3073   -8.7329 C   0  0  0  0  0  0  0  0  0  0  0  0
    3.2657    9.6352   -9.9433 C   0  0  0  0  0  0  0  0  0  0  0  0
    2.3062    7.8832   -5.2268 N   0  0  0  0  0  0  0  0  0  0  0  0
    2.1393    7.2960   -4.4545 H   0  0  0  0  0  0  0  0  0  0  0  0
    2.3108    8.8608   -5.1100 H   0  0  0  0  0  0  0  0  0  0  0  0
    3.0778   -0.3525   -9.5306 C   0  0  0  0  0  0  0  0  0  0  0  0
    3.0101    4.0358   -7.8883 N   0  0  0  0  0  0  0  0  0  0  0  0
    2.9120    0.9825   -9.1317 N   0  0  0  0  0  0  0  0  0  0  0  0
    3.8814    3.4624   -8.9269 C   0  0  0  0  0  0  0  0  0  0  0  0
    1.9922    3.0063   -7.6240 C   0  0  0  0  0  0  0  0  0  0  0  0
    3.7649    2.0136   -9.4548 C   0  0  0  0  0  0  0  0  0  0  0  0
    2.0396    1.5790   -8.2465 C   0  0  0  0  0  0  0  0  0  0  0  0
    3.9716   -0.6670  -10.3137 O   0  0  0  0  0  0  0  0  0  0  0  0
    2.1825   -1.3545   -8.9799 C   0  0  0  0  0  0  0  0  0  0  0  0
    2.4183   -1.9453   -7.7682 O   0  0  0  0  0  0  0  0  0  0  0  0
    1.0258   -1.8816   -9.5222 C   0  0  0  0  0  0  0  0  0  0  0  0
    1.4180   -2.8422   -7.5472 C   0  0  0  0  0  0  0  0  0  0  0  0
    0.5364   -2.8372   -8.6035 C   0  0  0  0  0  0  0  0  0  0  0  0
    3.1842   11.6740   -8.6739 O   0  0  0  0  0  0  0  0  0  0  0  0
    4.1816   12.0960   -7.7809 C   0  0  0  0  0  0  0  0  0  0  0  0
    3.4284   10.1837  -11.1890 O   0  0  0  0  0  0  0  0  0  0  0  0
    2.2936   10.2030  -12.0058 C   0  0  0  0  0  0  0  0  0  0  0  0
  1  2  2  0
  1  5  1  0
  1 15  1  0
  2  4  1  0
  3  6  1  0
  3  4  2  0
  3  7  1  0
  4 11  1  0
  5  6  2  0
  6  8  1  0
 14 16  1  0
 14 22  1  0
 14 21  2  0
 15 17  1  0
 15 18  1  0
 16 20  1  0
 16 19  1  0
  7  9  2  0
 22 23  1  0
 22 24  2  0
  8 10  2  0
  9 10  1  0
  9 27  1  0
 10 29  1  0
 23 25  1  0
 17 19  2  0
 18 20  2  0
 24 26  1  0
 25 26  2  0
 27 28  1  0
 29 30  1  0
 11 12  1  0
 11 13  1  0
M  END
> <COMPND>
UNNAMED

> <AUTHOR>
GENERATED BY OPEN BABEL 3.1.0

> <MASTER>
0    0    0    0    0    0    0    0   28    0   28    0

> <minimizedAffinity>
-7.30077

> <CNNscore>
0.0981140956

> <CNNaffinity>
4.1201167107

> <CNN_VS>
0.4042415321

> <CNNaffinity_variance>
0.8401557803

$$$$
ligands/lig.pdb


 30 33  0  0  0  0  0  0  0  0999 V2000
    0.0535    3.3929   -8.1829 C   0  0  0  0  0  0  0  0  0  0  0  0
    0.9628    4.2685   -8.6383 N   0  0  0  0  0  0  0  0  0  0  0  0
   -0.8329    5.5580   -9.6122 C   0  0  0  0  0  0  0  0  0  0  0  0
    0.5109    5.3294   -9.3366 C   0  0  0  0  0  0  0  0  0  0  0  0
   -1.2695    3.5808   -8.3548 N   0  0  0  0  0  0  0  0  0  0  0  0
   -1.6988    4.6310   -9.0534 C   0  0  0  0  0  0  0  0  0  0  0  0
   -1.3521    6.6131  -10.3928 C   0  0  0  0  0  0  0  0  0  0  0  0
   -3.0601    4.7875   -9.2583 C   0  0  0  0  0  0  0  0  0  0  0  0
   -2.7311    6.7575  -10.5971 C   0  0  0  0  0  0  0  0  0  0  0  0
   -3.6015    5.8203  -10.0342 C   0  0  0  0  0  0  0  0  0  0  0  0
    1.5000    6.2319   -9.8336 N   0  0  0  0  0  0  0  0  0  0  0  0
    2.4523    6.0735   -9.6406 H   0  0  0  0  0  0  0  0  0  0  0  0
    1.2296    7.0125  -10.3691 H   0  0  0  0  0  0  0  0  0  0  0  0
    2.7107   -1.8836   -6.9608 C   0  0  0  0  0  0  0  0  0  0  0  0
    0.4686    2.1772   -7.6252 N   0  0  0  0  0  0  0  0  0  0  0  0
    2.0585   -0.6973   -7.3301 N   0  0  0  0  0  0  0  0  0  0  0  0
    1.8556    1.9613   -7.1820 C   0  0  0  0  0  0  0  0  0  0  0  0
   -0.0144    0.8528   -8.0475 C   0  0  0  0  0  0  0  0  0  0  0  0
    2.5255    0.5719   -7.0731 C   0  0  0  0  0  0  0  0  0  0  0  0
    0.8043   -0.4577   -7.8497 C   0  0  0  0  0  0  0  0  0  0  0  0
    3.8346   -1.8533   -6.4638 O   0  0  0  0  0  0  0  0  0  0  0  0
    2.0178   -3.1441   -7.1605 C   0  0  0  0  0  0  0  0  0  0  0  0
    1.4672   -3.8381   -6.1174 O   0  0  0  0  0  0  0  0  0  0  0  0
    1.8059   -3.8458   -8.3321 C   0  0  0  0  0  0  0  0  0  0  0  0
    0.9131   -4.9730   -6.6264 C   0  0  0  0  0  0  0  0  0  0  0  0
    1.0986   -5.0199   -7.9889 C   0  0  0  0  0  0  0  0  0  0  0  0
   -3.2159    7.7629  -11.3952 O   0  0  0  0  0  0  0  0  0  0  0  0
   -3.4090    8.9619  -10.6913 C   0  0  0  0  0  0  0  0  0  0  0  0
   -4.9721    5.8308  -10.0577 O   0  0  0  0  0  0  0  0  0  0  0  0
   -5.5670    5.6821  -11.3143 C   0  0  0  0  0  0  0  0  0  0  0  0
  1  2  2  0
  1  5  1  0
  1 15  1  0
  2  4  1  0
  3  6  1  0
  3  4  2  0
  3  7  1  0
  4 11  1  0
  5  6  2  0
  6  8  1  0
 14 16  1  0
 14 22  1  0
 14 21  2  0
 15 17  1  0
 15 18  1  0
 16 20  1  0
 16 19  1  0
  7  9  2  0
 22 23  1  0
 22 24  2  0
  8 10  2  0
  9 10  1  0
  9 27  1  0
 10 29  1  0
 23 25  1  0
 17 19  2  0
 18 20  2  0
 24 26  1  0
 25 26  2  0
 27 28  1  0
 29 30  1  0
 11 12  1  0
 11 13  1  0
M  END
> <COMPND>
UNNAMED

> <AUTHOR>
GENERATED BY OPEN BABEL 3.1.0

> <MASTER>
0    0    0    0    0    0    0    0   28    0   28    0

> <minimizedAffinity>
-7.92373

> <CNNscore>
0.0871055648

> <CNNaffinity>
3.9833545685

> <CNN_VS>
0.3469723463

> <CNNaffinity_variance>
0.7655915618

$$$$
ligands/lig.pdb


 30 33  0  0  0  0  0  0  0  0999 V2000
    3.0744    7.5015   -9.2745 C   0  0  0  0  0  0  0  0  0  0  0  0
    2.9831    6.8689  -10.4544 N   0  0  0  0  0  0  0  0  0  0  0  0
    3.7217    4.8392   -9.3723 C   0  0  0  0  0  0  0  0  0  0  0  0
    3.3017    5.5593  -10.4855 C   0  0  0  0  0  0  0  0  0  0  0  0
    3.4118    6.8563   -8.1408 N   0  0  0  0  0  0  0  0  0  0  0  0
    3.7304    5.5635   -8.1905 C   0  0  0  0  0  0  0  0  0  0  0  0
    4.1298    3.4881   -9.3637 C   0  0  0  0  0  0  0  0  0  0  0  0
    4.1169    4.9240   -7.0237 C   0  0  0  0  0  0  0  0  0  0  0  0
    4.5237    2.8540   -8.1774 C   0  0  0  0  0  0  0  0  0  0  0  0
    4.5335    3.5872   -6.9879 C   0  0  0  0  0  0  0  0  0  0  0  0
    3.2225    4.9154  -11.7579 N   0  0  0  0  0  0  0  0  0  0  0  0
    2.9257    5.4218  -12.5482 H   0  0  0  0  0  0  0  0  0  0  0  0
    3.4648    3.9651  -11.8446 H   0  0  0  0  0  0  0  0  0  0  0  0
    3.8029   13.4087   -8.2893 C   0  0  0  0  0  0  0  0  0  0  0  0
    2.9487    8.8950   -9.2144 N   0  0  0  0  0  0  0  0  0  0  0  0
    3.6325   12.0219   -8.4189 N   0  0  0  0  0  0  0  0  0  0  0  0
    3.9263    9.7897   -9.8551 C   0  0  0  0  0  0  0  0  0  0  0  0
    2.4432    9.6417   -8.0514 C   0  0  0  0  0  0  0  0  0  0  0  0
    4.1852   11.2494   -9.4153 C   0  0  0  0  0  0  0  0  0  0  0  0
    2.8095   11.1289   -7.7665 C   0  0  0  0  0  0  0  0  0  0  0  0
    4.5761   14.0174   -9.0259 O   0  0  0  0  0  0  0  0  0  0  0  0
    3.0290   14.1085   -7.2793 C   0  0  0  0  0  0  0  0  0  0  0  0
    2.8245   13.5815   -6.0330 O   0  0  0  0  0  0  0  0  0  0  0  0
    2.3852   15.3284   -7.3653 C   0  0  0  0  0  0  0  0  0  0  0  0
    2.0538   14.4617   -5.3364 C   0  0  0  0  0  0  0  0  0  0  0  0
    1.7583   15.5540   -6.1191 C   0  0  0  0  0  0  0  0  0  0  0  0
    4.9600    1.5531   -8.1943 O   0  0  0  0  0  0  0  0  0  0  0  0
    3.9284    0.6441   -8.4766 C   0  0  0  0  0  0  0  0  0  0  0  0
    4.8125    3.1312   -5.7257 O   0  0  0  0  0  0  0  0  0  0  0  0
    3.8157    2.3645   -5.1142 C   0  0  0  0  0  0  0  0  0  0  0  0
  1  2  2  0
  1  5  1  0
  1 15  1  0
  2  4  1  0
  3  6  1  0
  3  4  2  0
  3  7  1  0
  4 11  1  0
  5  6  2  0
  6  8  1  0
 14 16  1  0
 14 22  1  0
 14 21  2  0
 15 17  1  0
 15 18  1  0
 16 20  1  0
 16 19  1  0
  7  9  2  0
 22 23  1  0
 22 24  2  0
  8 10  2  0
  9 10  1  0
  9 27  1  0
 10 29  1  0
 23 25  1  0
 17 19  2  0
 18 20  2  0
 24 26  1  0
 25 26  2  0
 27 28  1  0
 29 30  1  0
 11 12  1  0
 11 13  1  0
M  END
> <COMPND>
UNNAMED

> <AUTHOR>
GENERATED BY OPEN BABEL 3.1.0

> <MASTER>
0    0    0    0    0    0    0    0   28    0   28    0

> <minimizedAffinity>
-6.77823

> <CNNscore>
0.0852371678

> <CNNaffinity>
4.3011536598

> <CNN_VS>
0.3666181564

> <CNNaffinity_variance>
0.6068086624

$$$$
ligands/lig.pdb


 30 33  0  0  0  0  0  0  0  0999 V2000
   -0.9380    2.6763   -8.7104 C   0  0  0  0  0  0  0  0  0  0  0  0
   -2.1685    3.1915   -8.5638 N   0  0  0  0  0  0  0  0  0  0  0  0
   -1.4610    5.1244   -9.8285 C   0  0  0  0  0  0  0  0  0  0  0  0
   -2.4108    4.3945   -9.1220 C   0  0  0  0  0  0  0  0  0  0  0  0
    0.0148    3.2944   -9.4353 N   0  0  0  0  0  0  0  0  0  0  0  0
   -0.2392    4.4861   -9.9743 C   0  0  0  0  0  0  0  0  0  0  0  0
   -1.6422    6.4135  -10.3737 C   0  0  0  0  0  0  0  0  0  0  0  0
    0.7645    5.1289  -10.6808 C   0  0  0  0  0  0  0  0  0  0  0  0
   -0.6171    7.0555  -11.0817 C   0  0  0  0  0  0  0  0  0  0  0  0
    0.6142    6.4105  -11.2255 C   0  0  0  0  0  0  0  0  0  0  0  0
   -3.7192    4.9334   -8.9287 N   0  0  0  0  0  0  0  0  0  0  0  0
   -4.3943    4.4197   -8.4291 H   0  0  0  0  0  0  0  0  0  0  0  0
   -3.9461    5.8186   -9.2951 H   0  0  0  0  0  0  0  0  0  0  0  0
    1.8646   -2.1666   -6.4549 C   0  0  0  0  0  0  0  0  0  0  0  0
   -0.5671    1.5317   -7.9938 N   0  0  0  0  0  0  0  0  0  0  0  0
    1.2143   -1.0855   -7.0691 N   0  0  0  0  0  0  0  0  0  0  0  0
    0.6140    1.5163   -7.1153 C   0  0  0  0  0  0  0  0  0  0  0  0
   -0.6999    0.1525   -8.4896 C   0  0  0  0  0  0  0  0  0  0  0  0
    1.3938    0.2371   -6.7322 C   0  0  0  0  0  0  0  0  0  0  0  0
    0.1793   -1.0274   -7.9778 C   0  0  0  0  0  0  0  0  0  0  0  0
    2.7485   -1.9762   -5.6221 O   0  0  0  0  0  0  0  0  0  0  0  0
    1.4539   -3.5130   -6.8114 C   0  0  0  0  0  0  0  0  0  0  0  0
    0.9939   -4.3989   -5.8752 O   0  0  0  0  0  0  0  0  0  0  0  0
    1.4583   -4.1261   -8.0499 C   0  0  0  0  0  0  0  0  0  0  0  0
    0.7119   -5.5658   -6.5178 C   0  0  0  0  0  0  0  0  0  0  0  0
    0.9837   -5.4436   -7.8610 C   0  0  0  0  0  0  0  0  0  0  0  0
   -0.7953    8.3267  -11.5667 O   0  0  0  0  0  0  0  0  0  0  0  0
   -1.2913    8.3361  -12.8798 C   0  0  0  0  0  0  0  0  0  0  0  0
    1.7044    6.8369  -11.9386 O   0  0  0  0  0  0  0  0  0  0  0  0
    2.2422    5.9203  -12.8474 C   0  0  0  0  0  0  0  0  0  0  0  0
  1  2  2  0
  1  5  1  0
  1 15  1  0
  2  4  1  0
  3  6  1  0
  3  4  2  0
  3  7  1  0
  4 11  1  0
  5  6  2  0
  6  8  1  0
 14 16  1  0
 14 22  1  0
 14 21  2  0
 15 17  1  0
 15 18  1  0
 16 20  1  0
 16 19  1  0
  7  9  2  0
 22 23  1  0
 22 24  2  0
  8 10  2  0
  9 10  1  0
  9 27  1  0
 10 29  1  0
 23 25  1  0
 17 19  2  0
 18 20  2  0
 24 26  1  0
 25 26  2  0
 27 28  1  0
 29 30  1  0
 11 12  1  0
 11 13  1  0
M  END
> <COMPND>
UNNAMED

> <AUTHOR>
GENERATED BY OPEN BABEL 3.1.0

> <MASTER>
0    0    0    0    0    0    0    0   28    0   28    0

> <minimizedAffinity>
-8.26058

> <CNNscore>
0.0817695409

> <CNNaffinity>
3.7845964432

> <CNN_VS>
0.3094647229

> <CNNaffinity_variance>
1.2110654116

$$$$
ligands/lig.pdb


 30 33  0  0  0  0  0  0  0  0999 V2000
    3.2790    5.2875   -8.6644 C   0  0  0  0  0  0  0  0  0  0  0  0
    2.9503    5.2815   -9.9655 N   0  0  0  0  0  0  0  0  0  0  0  0
    2.8237    7.6930   -9.8985 C   0  0  0  0  0  0  0  0  0  0  0  0
    2.7327    6.4724  -10.5587 C   0  0  0  0  0  0  0  0  0  0  0  0
    3.4488    6.4323   -7.9746 N   0  0  0  0  0  0  0  0  0  0  0  0
    3.2229    7.6005   -8.5743 C   0  0  0  0  0  0  0  0  0  0  0  0
    2.5418    8.9596  -10.4536 C   0  0  0  0  0  0  0  0  0  0  0  0
    3.3599    8.7675   -7.8400 C   0  0  0  0  0  0  0  0  0  0  0  0
    2.6791   10.1325   -9.6987 C   0  0  0  0  0  0  0  0  0  0  0  0
    3.0798   10.0361   -8.3634 C   0  0  0  0  0  0  0  0  0  0  0  0
    2.3580    6.4377  -11.9365 N   0  0  0  0  0  0  0  0  0  0  0  0
    2.2926    5.5756  -12.4073 H   0  0  0  0  0  0  0  0  0  0  0  0
    2.1651    7.2760  -12.4154 H   0  0  0  0  0  0  0  0  0  0  0  0
    4.1123   -0.3886   -6.7981 C   0  0  0  0  0  0  0  0  0  0  0  0
    3.3247    4.0856   -7.9471 N   0  0  0  0  0  0  0  0  0  0  0  0
    3.8613    0.8951   -7.3061 N   0  0  0  0  0  0  0  0  0  0  0  0
    4.6007    3.4457   -7.5876 C   0  0  0  0  0  0  0  0  0  0  0  0
    2.3663    2.9797   -8.1024 C   0  0  0  0  0  0  0  0  0  0  0  0
    4.7638    1.9346   -7.3029 C   0  0  0  0  0  0  0  0  0  0  0  0
    2.7067    1.4996   -7.7555 C   0  0  0  0  0  0  0  0  0  0  0  0
    5.2349   -0.6996   -6.4054 O   0  0  0  0  0  0  0  0  0  0  0  0
    3.0104   -1.3317   -6.7283 C   0  0  0  0  0  0  0  0  0  0  0  0
    2.5848   -2.0270   -7.8275 O   0  0  0  0  0  0  0  0  0  0  0  0
    2.2264   -1.6770   -5.6438 C   0  0  0  0  0  0  0  0  0  0  0  0
    1.5364   -2.8049   -7.4406 C   0  0  0  0  0  0  0  0  0  0  0  0
    1.2798   -2.6209   -6.1015 C   0  0  0  0  0  0  0  0  0  0  0  0
    2.3581   11.3516  -10.2404 O   0  0  0  0  0  0  0  0  0  0  0  0
    1.1494   11.3212  -10.9535 C   0  0  0  0  0  0  0  0  0  0  0  0
    3.3402   11.0611   -7.4914 O   0  0  0  0  0  0  0  0  0  0  0  0
    2.2318   11.6128   -6.8417 C   0  0  0  0  0  0  0  0  0  0  0  0
  1  2  2  0
  1  5  1  0
  1 15  1  0
  2  4  1  0
  3  6  1  0
  3  4  2  0
  3  7  1  0
  4 11  1  0
  5  6  2  0
  6  8  1  0
 14 16  1  0
 14 22  1  0
 14 21  2  0
 15 17  1  0
 15 18  1  0
 16 20  1  0
 16 19  1  0
  7  9  2  0
 22 23  1  0
 22 24  2  0
  8 10  2  0
  9 10  1  0
  9 27  1  0
 10 29  1  0
 23 25  1  0
 17 19  2  0
 18 20  2  0
 24 26  1  0
 25 26  2  0
 27 28  1  0
 29 30  1  0
 11 12  1  0
 11 13  1  0
M  END
> <COMPND>
UNNAMED

> <AUTHOR>
GENERATED BY OPEN BABEL 3.1.0

> <MASTER>
0    0    0    0    0    0    0    0   28    0   28    0

> <minimizedAffinity>
-7.95451

> <CNNscore>
0.0769681036

> <CNNaffinity>
4.5142540932

> <CNN_VS>
0.3474535644

> <CNNaffinity_variance>
0.3057925999

$$$$
ligands/lig.pdb


 30 33  0  0  0  0  0  0  0  0999 V2000
    2.5285    5.3345  -10.2274 C   0  0  0  0  0  0  0  0  0  0  0  0
    2.7605    6.2767   -9.3003 N   0  0  0  0  0  0  0  0  0  0  0  0
    3.8176    4.5970   -7.9229 C   0  0  0  0  0  0  0  0  0  0  0  0
    3.3981    5.8989   -8.1741 C   0  0  0  0  0  0  0  0  0  0  0  0
    2.9616    4.0669  -10.0833 N   0  0  0  0  0  0  0  0  0  0  0  0
    3.5840    3.7087   -8.9610 C   0  0  0  0  0  0  0  0  0  0  0  0
    4.4275    4.1361   -6.7364 C   0  0  0  0  0  0  0  0  0  0  0  0
    3.9853    2.3912   -8.8093 C   0  0  0  0  0  0  0  0  0  0  0  0
    4.8241    2.7995   -6.5932 C   0  0  0  0  0  0  0  0  0  0  0  0
    4.5855    1.9057   -7.6406 C   0  0  0  0  0  0  0  0  0  0  0  0
    3.6090    6.9138   -7.1916 N   0  0  0  0  0  0  0  0  0  0  0  0
    3.3134    7.8366   -7.3658 H   0  0  0  0  0  0  0  0  0  0  0  0
    4.0499    6.6906   -6.3401 H   0  0  0  0  0  0  0  0  0  0  0  0
   -0.8177    7.9389  -14.5187 C   0  0  0  0  0  0  0  0  0  0  0  0
    1.7035    5.6172  -11.3232 N   0  0  0  0  0  0  0  0  0  0  0  0
   -0.1014    7.3736  -13.4528 N   0  0  0  0  0  0  0  0  0  0  0  0
    2.1842    6.3995  -12.4737 C   0  0  0  0  0  0  0  0  0  0  0  0
    0.2621    5.9007  -11.2362 C   0  0  0  0  0  0  0  0  0  0  0  0
    1.2638    7.1984  -13.4253 C   0  0  0  0  0  0  0  0  0  0  0  0
   -0.5112    6.7293  -12.3051 C   0  0  0  0  0  0  0  0  0  0  0  0
   -0.2292    8.4288  -15.4804 O   0  0  0  0  0  0  0  0  0  0  0  0
   -2.2687    7.9120  -14.4675 C   0  0  0  0  0  0  0  0  0  0  0  0
   -2.9888    6.8576  -14.9598 O   0  0  0  0  0  0  0  0  0  0  0  0
   -3.1408    8.8634  -13.9734 C   0  0  0  0  0  0  0  0  0  0  0  0
   -4.3082    7.1421  -14.7804 C   0  0  0  0  0  0  0  0  0  0  0  0
   -4.4493    8.3699  -14.1757 C   0  0  0  0  0  0  0  0  0  0  0  0
    5.3749    2.3582   -5.4165 O   0  0  0  0  0  0  0  0  0  0  0  0
    4.4046    2.0679   -4.4446 C   0  0  0  0  0  0  0  0  0  0  0  0
    4.9620    0.5901   -7.7207 O   0  0  0  0  0  0  0  0  0  0  0  0
    4.0145   -0.3478   -7.2991 C   0  0  0  0  0  0  0  0  0  0  0  0
  1  2  2  0
  1  5  1  0
  1 15  1  0
  2  4  1  0
  3  6  1  0
  3  4  2  0
  3  7  1  0
  4 11  1  0
  5  6  2  0
  6  8  1  0
 14 16  1  0
 14 22  1  0
 14 21  2  0
 15 17  1  0
 15 18  1  0
 16 20  1  0
 16 19  1  0
  7  9  2  0
 22 23  1  0
 22 24  2  0
  8 10  2  0
  9 10  1  0
  9 27  1  0
 10 29  1  0
 23 25  1  0
 17 19  2  0
 18 20  2  0
 24 26  1  0
 25 26  2  0
 27 28  1  0
 29 30  1  0
 11 12  1  0
 11 13  1  0
M  END
> <COMPND>
UNNAMED

> <AUTHOR>
GENERATED BY OPEN BABEL 3.1.0

> <MASTER>
0    0    0    0    0    0    0    0   28    0   28    0

> <minimizedAffinity>
-6.46876

> <CNNscore>
0.0747785792

> <CNNaffinity>
3.6203644276

> <CNN_VS>
0.2707256973

> <CNNaffinity_variance>
0.9827103615

$$$$
